Circuit: * D:\Anu\CMOS\Variation in ro (mosfet).asc

WARNING: Node N001 is floating.

Instance "m1": Length shorter than recommended for a level 1 MOSFET.
Vdd: Missing value, assumed 0V @ DC

Date: Mon Mar 18 21:15:09 2024
Total elapsed time: 0.219 seconds.

tnom = 27
temp = 27
method = trap
totiter = 111
traniter = 0
tranpoints = 0
accept = 0
rejected = 0
matrix size = 5
fillins = 0
solver = Normal
Matrix Compiler1:      12 opcodes  0.1/[0.0]/0.0
Matrix Compiler2:      28 opcodes  0.0/[0.0]/0.1

